/*--------------------------------*- C++ -*----------------------------------*\
| =========                 |                                                 |
| \\      /  F ield         | OpenFOAM: The Open Source CFD Toolbox           |
|  \\    /   O peration     | Version:  2.2.0                                 |
|   \\  /    A nd           | Web:      www.OpenFOAM.org                      |
|    \\/     M anipulation  |                                                 |
\*---------------------------------------------------------------------------*/
FoamFile
{
    version     2.0;
    format      ascii;
    class       polyBoundaryMesh;
    location    "constant/polyMesh";
    object      boundary;
}
// * * * * * * * * * * * * * * * * * * * * * * * * * * * * * * * * * * * * * //

6
(
    inlet
    {
        type            patch;
        physicalType    patch;
        nFaces          19;
        startFace       44734;
    }
    outlet
    {
        type            patch;
        physicalType    patch;
        nFaces          69;
        startFace       44792;
    }
    cylinder
    {
        type            wall;
        physicalType    wall;
        nFaces          22;
        startFace       44861;
    }
    bottom
    {
        type            symmetryPlane;
        physicalType    symmetryPlane;
        nFaces          39;
        startFace       44753;
    }
    top
    {
        type            symmetryPlane;
        physicalType    symmetryPlane;
        nFaces          39;
        startFace       44883;
    }
    frontAndBack
    {
        type            empty;
        physicalType    empty;
        nFaces          25616;
        startFace       19118;
    }
)

// ************************************************************************* //
