/*--------------------------------*- C++ -*----------------------------------*\
| =========                 |                                                 |
| \\      /  F ield         | OpenFOAM: The Open Source CFD Toolbox           |
|  \\    /   O peration     | Version:  2.2.0                                 |
|   \\  /    A nd           | Web:      www.OpenFOAM.org                      |
|    \\/     M anipulation  |                                                 |
\*---------------------------------------------------------------------------*/
FoamFile
{
    version     2.0;
    format      ascii;
    class       polyBoundaryMesh;
    location    "constant/polyMesh";
    object      boundary;
}
// * * * * * * * * * * * * * * * * * * * * * * * * * * * * * * * * * * * * * //

6
(
    inlet
    {
        type            patch;
        physicalType    patch;
        nFaces          9;
        startFace       11102;
    }
    outlet
    {
        type            patch;
        physicalType    patch;
        nFaces          34;
        startFace       11130;
    }
    cylinder
    {
        type            wall;
        physicalType    wall;
        nFaces          10;
        startFace       11164;
    }
    bottom
    {
        type            symmetryPlane;
        physicalType    symmetryPlane;
        nFaces          19;
        startFace       11111;
    }
    top
    {
        type            symmetryPlane;
        physicalType    symmetryPlane;
        nFaces          19;
        startFace       11174;
    }
    frontAndBack
    {
        type            empty;
        physicalType    empty;
        nFaces          6370;
        startFace       4732;
    }
)

// ************************************************************************* //
