/*--------------------------------*- C++ -*----------------------------------*\
| =========                 |                                                 |
| \\      /  F ield         | OpenFOAM: The Open Source CFD Toolbox           |
|  \\    /   O peration     | Version:  2.2.0                                 |
|   \\  /    A nd           | Web:      www.OpenFOAM.org                      |
|    \\/     M anipulation  |                                                 |
\*---------------------------------------------------------------------------*/
FoamFile
{
    version     2.0;
    format      ascii;
    class       polyBoundaryMesh;
    location    "constant/polyMesh";
    object      boundary;
}
// * * * * * * * * * * * * * * * * * * * * * * * * * * * * * * * * * * * * * //

6
(
    frontAndBack
    {
        type            empty;
        physicalType    empty;
        nFaces          5856;
        startFace       11584;
    }
    bottom
    {
        type            symmetryPlane;
        physicalType    symmetryPlane;
        nFaces          76;
        startFace       17440;
    }
    outlet
    {
        type            patch;
        physicalType    patch;
        nFaces          36;
        startFace       17516;
    }
    top
    {
        type            symmetryPlane;
        physicalType    symmetryPlane;
        nFaces          76;
        startFace       17552;
    }
    inlet
    {
        type            patch;
        physicalType    patch;
        nFaces          36;
        startFace       17628;
    }
    cylinder
    {
        type            wall;
        physicalType    wall;
        nFaces          32;
        startFace       17664;
    }
)

// ************************************************************************* //
