/*--------------------------------*- C++ -*----------------------------------*\
| =========                 |                                                 |
| \\      /  F ield         | OpenFOAM: The Open Source CFD Toolbox           |
|  \\    /   O peration     | Version:  2.2.0                                 |
|   \\  /    A nd           | Web:      www.OpenFOAM.org                      |
|    \\/     M anipulation  |                                                 |
\*---------------------------------------------------------------------------*/
FoamFile
{
    version     2.0;
    format      ascii;
    class       polyBoundaryMesh;
    location    "constant/polyMesh";
    object      boundary;
}
// * * * * * * * * * * * * * * * * * * * * * * * * * * * * * * * * * * * * * //

6
(
    frontAndBack
    {
        type            empty;
        physicalType    empty;
        nFaces          23424;
        startFace       104896;
    }
    bottom
    {
        type            symmetryPlane;
        physicalType    symmetryPlane;
        nFaces          304;
        startFace       128320;
    }
    outlet
    {
        type            patch;
        physicalType    patch;
        nFaces          144;
        startFace       128624;
    }
    top
    {
        type            symmetryPlane;
        physicalType    symmetryPlane;
        nFaces          304;
        startFace       128768;
    }
    inlet
    {
        type            patch;
        physicalType    patch;
        nFaces          144;
        startFace       129072;
    }
    cylinder
    {
        type            wall;
        physicalType    wall;
        nFaces          128;
        startFace       129216;
    }
)

// ************************************************************************* //
