/*--------------------------------*- C++ -*----------------------------------*\
| =========                 |                                                 |
| \\      /  F ield         | OpenFOAM: The Open Source CFD Toolbox           |
|  \\    /   O peration     | Version:  2.2.0                                 |
|   \\  /    A nd           | Web:      www.OpenFOAM.org                      |
|    \\/     M anipulation  |                                                 |
\*---------------------------------------------------------------------------*/
FoamFile
{
    version     2.0;
    format      ascii;
    class       polyBoundaryMesh;
    location    "constant/polyMesh";
    object      boundary;
}
// * * * * * * * * * * * * * * * * * * * * * * * * * * * * * * * * * * * * * //

6
(
    inlet
    {
        type            patch;
        physicalType    patch;
        nFaces          39;
        startFace       181304;
    }
    outlet
    {
        type            patch;
        physicalType    patch;
        nFaces          139;
        startFace       181422;
    }
    cylinder
    {
        type            wall;
        physicalType    wall;
        nFaces          48;
        startFace       181561;
    }
    bottom
    {
        type            symmetryPlane;
        physicalType    symmetryPlane;
        nFaces          79;
        startFace       181343;
    }
    top
    {
        type            symmetryPlane;
        physicalType    symmetryPlane;
        nFaces          79;
        startFace       181609;
    }
    frontAndBack
    {
        type            empty;
        physicalType    empty;
        nFaces          103712;
        startFace       77592;
    }
)

// ************************************************************************* //
